Test_Network/condensed/network_18/Feeder_6/Lines.txt
New Line.LINE111 Bus1=109 Bus2=112 phases=3 Linecode=2c_.0225_UA Length=13.4287 Units=m
New Line.LINE115 Bus1=112 Bus2=116 phases=3 Linecode=2c_.0225_UA Length=2.9828 Units=m
New Line.LINE116 Bus1=112 Bus2=117 phases=3 Linecode=2c_.0225_UA Length=2.3452 Units=m
New Line.LINE121 Bus1=116 Bus2=122 phases=3 Linecode=2c_.0225_UA Length=3.8434 Units=m
New Line.LINE123 Bus1=117 Bus2=124 phases=3 Linecode=2c_.0225_UA Length=3.5678 Units=m
New Line.LINE135 Bus1=130 Bus2=136 phases=3 Linecode=4c_.2 Length=0.94242 Units=m
New Line.LINE200 Bus1=190 Bus2=201 phases=3 Linecode=4c_.2 Length=0.73053 Units=m
New Line.LINE259 Bus1=251 Bus2=260 phases=3 Linecode=2c_.0225_UA Length=1.9286 Units=m
New Line.LINE260 Bus1=251 Bus2=261 phases=3 Linecode=2c_.0225_UA Length=3.2982 Units=m
New Line.LINE271 Bus1=260 Bus2=272 phases=3 Linecode=3c_.03_UA Length=3.0516 Units=m
New Line.LINE273 Bus1=261 Bus2=274 phases=3 Linecode=3c_.03_UA Length=2.6488 Units=m
New Line.LINE388 Bus1=379 Bus2=389 phases=3 Linecode=2c_.0225 Length=1.0944 Units=m
New Line.LINE398 Bus1=390 Bus2=399 phases=3 Linecode=2c_.0225 Length=0.67617 Units=m
New Line.LINE421 Bus1=414 Bus2=422 phases=3 Linecode=2c_.0225 Length=1.0686 Units=m
New Line.LINE424 Bus1=417 Bus2=425 phases=3 Linecode=3c_.03_UA Length=2.4773 Units=m
New Line.LINE432 Bus1=425 Bus2=433 phases=3 Linecode=3c_.03_UA Length=2.0264 Units=m
New Line.LINE441 Bus1=434 Bus2=442 phases=3 Linecode=3c_.03_UA Length=2.2572 Units=m
New Line.LINE460 Bus1=453 Bus2=461 phases=3 Linecode=2c_.0225 Length=2.602 Units=m
New Line.LINE476 Bus1=469 Bus2=477 phases=3 Linecode=2c_.0225 Length=1.0642 Units=m
New Line.LINECmpd_0 Bus1=260 Bus2=382 phases=3 Linecode=2c_.0225_UA Length=11.979671 Units=m
New Line.LINECmpd_1 Bus1=1 Bus2=81 phases=3 Linecode=4c_.2 Length=66.130425 Units=m
New Line.LINECmpd_2 Bus1=81 Bus2=379 phases=3 Linecode=2c_.0225 Length=23.694401 Units=m
New Line.LINECmpd_3 Bus1=117 Bus2=237 phases=3 Linecode=2c_.0225_UA Length=9.760501 Units=m
New Line.LINECmpd_4 Bus1=190 Bus2=453 phases=3 Linecode=2c_.0225 Length=20.36946 Units=m
New Line.LINECmpd_5 Bus1=136 Bus2=414 phases=3 Linecode=2c_.0225 Length=22.583075 Units=m
New Line.LINECmpd_6 Bus1=160 Bus2=251 phases=3 Linecode=2c_.0225_UA Length=13.812 Units=m
New Line.LINECmpd_7 Bus1=201 Bus2=469 phases=3 Linecode=2c_.0225 Length=21.488198 Units=m
New Line.LINECmpd_8 Bus1=256 Bus2=417 phases=3 Linecode=3c_.03_UA Length=14.984426 Units=m
New Line.LINECmpd_9 Bus1=116 Bus2=215 phases=3 Linecode=2c_.0225_UA Length=11.574354 Units=m
New Line.LINECmpd_10 Bus1=130 Bus2=390 phases=3 Linecode=2c_.0225 Length=20.991697 Units=m
New Line.LINECmpd_11 Bus1=469 Bus2=531 phases=3 Linecode=2c_.0225 Length=9.292858 Units=m
New Line.LINECmpd_12 Bus1=379 Bus2=491 phases=3 Linecode=2c_.0225 Length=7.255583 Units=m
New Line.LINECmpd_13 Bus1=417 Bus2=434 phases=3 Linecode=3c_.03_UA Length=3.1002 Units=m
New Line.LINECmpd_14 Bus1=453 Bus2=528 phases=3 Linecode=2c_.0225 Length=7.370763 Units=m
New Line.LINECmpd_15 Bus1=81 Bus2=109 phases=3 Linecode=4c_.2 Length=38.8087 Units=m
New Line.LINECmpd_16 Bus1=390 Bus2=473 phases=3 Linecode=2c_.0225 Length=6.625385 Units=m
New Line.LINECmpd_17 Bus1=160 Bus2=190 phases=3 Linecode=4c_.2 Length=29.8146 Units=m
New Line.LINECmpd_18 Bus1=261 Bus2=392 phases=3 Linecode=2c_.0225_UA Length=10.22464 Units=m
New Line.LINECmpd_19 Bus1=425 Bus2=509 phases=3 Linecode=3c_.03_UA Length=9.0769 Units=m
New Line.LINECmpd_20 Bus1=414 Bus2=481 phases=3 Linecode=2c_.0225 Length=7.939007 Units=m
New Line.LINECmpd_21 Bus1=201 Bus2=256 phases=3 Linecode=4c_.2 Length=34.7004 Units=m
New Line.LINECmpd_22 Bus1=109 Bus2=130 phases=3 Linecode=4c_.2 Length=29.68175 Units=m
New Line.LINECmpd_23 Bus1=434 Bus2=503 phases=3 Linecode=3c_.03_UA Length=10.766515 Units=m
New Line.LINECmpd_24 Bus1=136 Bus2=160 phases=3 Linecode=4c_.2 Length=33.3734 Units=m
